data_crystal
_symmetry_space_group_name_H-M 'P1'
_space_group_IT_number 1
_cell_length_a 6.109244
_cell_length_b 6.109244
_cell_length_c 6.109244
_cell_angle_alpha 90.0000
_cell_angle_beta 90.0000
_cell_angle_gamma 90.0000
_cell_volume 228.0145

loop_
_atom_site_label
_atom_site_type_symbol
_atom_site_fract_x
_atom_site_fract_y
_atom_site_fract_z
Si1 Si 0.125000 0.125000 0.125000
Si2 Si 0.875000 0.375000 0.375000
Si3 Si 0.125000 0.625000 0.625000
Si4 Si 0.875000 0.875000 0.875000
Si5 Si 0.625000 0.125000 0.625000
Si6 Si 1.375000 0.375000 0.875000
Si7 Si 0.625000 0.625000 0.125000
Si8 Si 1.375000 0.875000 0.375000
