data_structure

_cell_length_a    4.23503
_cell_length_b    4.23503
_cell_length_c    4.06430
_cell_angle_alpha 90.000
_cell_angle_beta  90.000
_cell_angle_gamma 120.000

_symmetry_space_group_name_H-M  'P 1'
_symmetry_Int_Tables_number     1

loop_
_atom_site_label
_atom_site_type_symbol
_atom_site_fract_x
_atom_site_fract_y
_atom_site_fract_z
  C1  C  0.000000  0.000000  0.250000
  C2  C  0.000000  0.000000  0.750000
  C3  C  0.333333  0.666667  0.250000
  C4  C  0.666667  0.333333  0.750000