data_structure

_cell_length_a    3.58837
_cell_length_b    3.58837
_cell_length_c    3.58837
_cell_angle_alpha 90.000
_cell_angle_beta  90.000
_cell_angle_gamma 90.000

_symmetry_space_group_name_H-M  'P 1'
_symmetry_Int_Tables_number     1

loop_
_atom_site_label
_atom_site_type_symbol
_atom_site_fract_x
_atom_site_fract_y
_atom_site_fract_z
  Fe1  Fe  0.000000  0.000000  0.000000
  Fe2  Fe  0.500000  0.500000  0.500000