data_structure

_cell_length_a    5.27056
_cell_length_b    5.27056
_cell_length_c    5.27056
_cell_angle_alpha 90.000
_cell_angle_beta  90.000
_cell_angle_gamma 90.000

_symmetry_space_group_name_H-M  'P 1'
_symmetry_Int_Tables_number     1

loop_
_atom_site_label
_atom_site_type_symbol
_atom_site_fract_x
_atom_site_fract_y
_atom_site_fract_z
  Na1  Na  0.500000  0.500000  0.500000
  Na2  Na  0.500000  1.000000  1.000000
  Na3  Na  1.000000  0.500000  1.000000
  Na4  Na  1.000000  1.000000  0.500000
  Cl5  Cl  0.000000  0.000000  0.000000
  Cl6  Cl  0.000000  0.500000  0.500000
  Cl7  Cl  0.500000  0.000000  0.500000
  Cl8  Cl  0.500000  0.500000  0.000000