data_structure

_cell_length_a    3.62922
_cell_length_b    3.62922
_cell_length_c    1.93632
_cell_angle_alpha 90.000
_cell_angle_beta  90.000
_cell_angle_gamma 120.000

_symmetry_space_group_name_H-M  'P 1'
_symmetry_Int_Tables_number     1

loop_
_atom_site_label
_atom_site_type_symbol
_atom_site_fract_x
_atom_site_fract_y
_atom_site_fract_z
  Zn1  Zn  0.333333  0.666667  0.462651
  Zn2  Zn  0.666667  0.333333  0.962651
  O3  O  0.000000  0.000000  0.349382
  O4  O  0.000000  0.000000  0.849382